*Heading
** Job name: CFRP_plate_2D Model name: Model-1
** Generated by: Abaqus/CAE 6.14-1
*Preprint, echo=NO, model=NO, history=NO, contact=NO
**
** PARTS
**
*Part, name=Part-1
*Node
      1,         -25.,           0.,          50.
      2,         -23.,           0.,          50.
      3,         -21.,           0.,          50.
      4,         -19.,           0.,          50.
      5,         -17.,           0.,          50.
      6,         -15.,           0.,          50.
      7,         -13.,           0.,          50.
      8,         -11.,           0.,          50.
      9,          -9.,           0.,          50.
     10,          -7.,           0.,          50.
     11,          -5.,           0.,          50.
     12,          -3.,           0.,          50.
     13,          -1.,           0.,          50.
     14,           1.,           0.,          50.
     15,           3.,           0.,          50.
     16,           5.,           0.,          50.
     17,           7.,           0.,          50.
     18,           9.,           0.,          50.
     19,          11.,           0.,          50.
     20,          13.,           0.,          50.
** ... 656 like lines cut
*Element, type=S4R
  1,   1,   2,  28,  27
  2,   2,   3,  29,  28
  3,   3,   4,  30,  29
  4,   4,   5,  31,  30
  5,   5,   6,  32,  31
  6,   6,   7,  33,  32
  7,   7,   8,  34,  33
  8,   8,   9,  35,  34
  9,   9,  10,  36,  35
 10,  10,  11,  37,  36
 11,  11,  12,  38,  37
 12,  12,  13,  39,  38
 13,  13,  14,  40,  39
 14,  14,  15,  41,  40
 15,  15,  16,  42,  41
 16,  16,  17,  43,  42
 17,  17,  18,  44,  43
 18,  18,  19,  45,  44
 19,  19,  20,  46,  45
 20,  20,  21,  47,  46
** ... 605 like lines cut
** Region: (CompositeLayup-1-1: Generated From Layup)
*Elset, elset=CompositeLayup-1-1, generate
   1,  625,    1
** Section: CompositeLayup-1-1
*Shell Section, elset=CompositeLayup-1-1, composite, layup=CompositeLayup-1
1., 3, CFRP_2D, 0., Ply-1
1., 3, CFRP_2D, 90., Ply-2
1., 3, CFRP_2D, 45., Ply-3
1., 3, CFRP_2D, -45., Ply-4
*End Part
**  
**
** ASSEMBLY
**
*Assembly, name=Assembly
**  
*Instance, name=Part-1-1, part=Part-1
*End Instance
**  
*Nset, nset=Set-1, instance=Part-1-1, generate
  26,  676,   26
*Elset, elset=Set-1, instance=Part-1-1, generate
  25,  625,   25
*Nset, nset=Set-2, instance=Part-1-1, generate
   1,  651,   26
*Elset, elset=Set-2, instance=Part-1-1, generate
   1,  601,   25
*End Assembly
** 
** MATERIALS
** 
*Material, name=CFRP_2D
*Damage Initiation, criterion=HASHIN
1340.,1192., 19.6, 92.3,  51.,  23.
*Damage Evolution, type=ENERGY
 48.4, 60.3,  4.5,  8.5
*Elastic, type=LAMINA
106000.,7200., 0.34,3400.,3400.,2520.
** ----------------------------------------------------------------
** 
** STEP: Step-1
** 
*Step, name=Step-1, nlgeom=YES, inc=300
*Static
0.01, 1., 1e-05, 0.01
** 
** BOUNDARY CONDITIONS
** 
** Name: BC-1 Type: Displacement/Rotation
*Boundary
Set-1, 1, 1
Set-1, 2, 2
Set-1, 3, 3
Set-1, 4, 4
Set-1, 5, 5
Set-1, 6, 6
** Name: BC-2 Type: Displacement/Rotation
*Boundary
Set-2, 1, 1, 1.
** 
** OUTPUT REQUESTS
** 
*Restart, write, frequency=0
** 
** FIELD OUTPUT: F-Output-2
** 
*Output, field
*Element Output, elset=Part-1-1.CompositeLayup-1-1, directions=YES
2, 5, 8, 11
HSNFCCRT, HSNFTCRT, HSNMCCRT, HSNMTCRT, MISES, S
** 
** FIELD OUTPUT: F-Output-1
** 
*Output, field, variable=PRESELECT
** 
** HISTORY OUTPUT: H-Output-1
** 
*Output, history, variable=PRESELECT
*End Step
