*Heading
** Job name: CFRP_solid_plate Model name: Model-1
** Generated by: Abaqus/CAE 6.14-1
*Preprint, echo=NO, model=NO, history=NO, contact=NO
**
** PARTS
**
*Part, name=Part-1
*Node
      1,         -25.,          -2.,          50.
      2,         -25.,  -1.66666663,          50.
      3,         -25.,  -1.33333337,          50.
      4,         -25.,          -1.,          50.
      5,         -25., -0.666666687,          50.
      6,         -25., -0.333333343,          50.
      7,         -25.,           0.,          50.
      8,         -25.,  0.333333343,          50.
      9,         -25.,  0.666666687,          50.
     10,         -25.,           1.,          50.
     11,         -25.,   1.33333337,          50.
     12,         -25.,   1.66666663,          50.
     13,         -25.,           2.,          50.
     14,         -25.,          -2.,   47.0588226
     15,         -25.,  -1.66666663,   47.0588226
     16,         -25.,  -1.33333337,   47.0588226
     17,         -25.,          -1.,   47.0588226
     18,         -25., -0.666666687,   47.0588226
     19,         -25., -0.333333343,   47.0588226
     20,         -25.,           0.,   47.0588226
** ... 4192 like lines cut
*Element, type=SC8R
   1,  235,  248,   14,    1,  236,  249,   15,    2
   2,  236,  249,   15,    2,  237,  250,   16,    3
   3,  237,  250,   16,    3,  238,  251,   17,    4
   4,  238,  251,   17,    4,  239,  252,   18,    5
   5,  239,  252,   18,    5,  240,  253,   19,    6
   6,  240,  253,   19,    6,  241,  254,   20,    7
   7,  241,  254,   20,    7,  242,  255,   21,    8
   8,  242,  255,   21,    8,  243,  256,   22,    9
   9,  243,  256,   22,    9,  244,  257,   23,   10
  10,  244,  257,   23,   10,  245,  258,   24,   11
  11,  245,  258,   24,   11,  246,  259,   25,   12
  12,  246,  259,   25,   12,  247,  260,   26,   13
  13,  248,  261,   27,   14,  249,  262,   28,   15
  14,  249,  262,   28,   15,  250,  263,   29,   16
  15,  250,  263,   29,   16,  251,  264,   30,   17
  16,  251,  264,   30,   17,  252,  265,   31,   18
  17,  252,  265,   31,   18,  253,  266,   32,   19
  18,  253,  266,   32,   19,  254,  267,   33,   20
  19,  254,  267,   33,   20,  255,  268,   34,   21
  20,  255,  268,   34,   21,  256,  269,   35,   22
** ... 3448 like lines cut
*Nset, nset=Set-1, generate
   13,  3991,   234
*Elset, elset=Set-1, generate
   12,  3276,   204
*Elset, elset=_Surf-1_S2, internal, generate
   12,  3468,    12
*Surface, type=ELEMENT, name=Surf-1
_Surf-1_S2, S2
*Distribution, name=Ori-1-DiscOrient, location=ELEMENT, Table=Ori-1-DiscOrient_Table
** Description: Distribution generated from Discrete Orientation
,           1.,           0.,           0.,           0.,           1.,           0.
1,           1.,          -0.,           0.,           0.,           0.,          -1.
2,           1.,          -0.,           0.,           0.,           0.,          -1.
3,           1.,          -0.,           0.,           0.,           0.,          -1.
4,           1.,          -0.,           0.,           0.,           0.,          -1.
5,           1.,          -0.,           0.,           0.,           0.,          -1.
6,           1.,          -0.,           0.,           0.,           0.,          -1.
7,           1.,          -0.,           0.,           0.,           0.,          -1.
8,           1.,          -0.,           0.,           0.,           0.,          -1.
9,           1.,          -0.,           0.,           0.,           0.,          -1.
10,           1.,          -0.,           0.,           0.,           0.,          -1.
11,           1.,          -0.,           0.,           0.,           0.,          -1.
12,           1.,          -0.,           0.,           0.,           0.,          -1.
13,           1.,          -0.,           0.,           0.,           0.,          -1.
14,           1.,          -0.,           0.,           0.,           0.,          -1.
15,           1.,          -0.,           0.,           0.,           0.,          -1.
16,           1.,          -0.,           0.,           0.,           0.,          -1.
17,           1.,          -0.,           0.,           0.,           0.,          -1.
18,           1.,          -0.,           0.,           0.,           0.,          -1.
19,           1.,          -0.,           0.,           0.,           0.,          -1.
20,           1.,          -0.,           0.,           0.,           0.,          -1.
** ... 3448 like lines cut
*Orientation, name=Ori-1, system=RECTANGULAR
Ori-1-DiscOrient
3, 0.
** Region: (CompositeLayup-1-1: Generated From Layup)
*Elset, elset=CompositeLayup-1-1, generate
    1,  3468,     1
** Section: CompositeLayup-1-1
*Shell Section, elset=CompositeLayup-1-1, composite, orientation=Ori-1, stack direction=3, layup=CompositeLayup-1
1., 3, CFRP, 0., Ply-1
1., 3, CFRP, 90., Ply-2
1., 3, CFRP, 45., Ply-3
1., 3, CFRP, -45., Ply-4
*End Part
**  
**
** ASSEMBLY
**
*Assembly, name=Assembly
**  
*Instance, name=Part-1-1, part=Part-1
*End Instance
**  
*Nset, nset=Set-3, instance=Part-1-1, generate
   1,  234,    1
*Elset, elset=Set-3, instance=Part-1-1, generate
   1,  204,    1
*Nset, nset=Set-4, instance=Part-1-1, generate
 3979,  4212,     1
*Elset, elset=Set-4, instance=Part-1-1, generate
 3265,  3468,     1
*Nset, nset=Set-5, instance=Part-1-1, generate
 3979,  4212,     1
*Elset, elset=Set-5, instance=Part-1-1, generate
 3265,  3468,     1
*Nset, nset=Set-6, instance=Part-1-1, generate
 3979,  4212,     1
*Elset, elset=Set-6, instance=Part-1-1, generate
 3265,  3468,     1
*Nset, nset=Set-Cell, instance=Part-1-1, generate
 3979,  4212,     1
*Elset, elset=Set-Cell, instance=Part-1-1, generate
 3265,  3468,     1
*End Assembly
*Distribution Table, name=Ori-1-DiscOrient_Table
coord3D, coord3D
** 
** MATERIALS
** 
*Material, name=CFRP
*Damage Initiation, criterion=HASHIN
1340.,1192., 19.6, 92.3,  51.,  23.
*Damage Evolution, type=ENERGY
 48.4, 60.3,  4.5,  8.5
*Elastic, type=ENGINEERING CONSTANTS
106000., 7200., 7200.,  0.34,  0.34, 0.378, 3400., 3400.
 2520.,
** ----------------------------------------------------------------
** 
** STEP: Step-1
** 
*Step, name=Step-1, nlgeom=YES, inc=300
*Static
0.01, 1., 1e-15, 0.01
** 
** BOUNDARY CONDITIONS
** 
** Name: BC-1 Type: Displacement/Rotation
*Boundary
Set-3, 1, 1
Set-3, 2, 2
Set-3, 3, 3
** Name: BC-2 Type: Displacement/Rotation
*Boundary
Set-6, 1, 1, -0.3
** 
** OUTPUT REQUESTS
** 
*Restart, write, frequency=0
** 
** FIELD OUTPUT: F-Output-1
** 
*Output, field
*Node Output
CF, RF, U
*Element Output, directions=YES
HSNFCCRT, HSNFTCRT, HSNMCCRT, HSNMTCRT, LE, PE, PEEQ, PEMAG, S
*Contact Output
CDISP, CSTRESS
** 
** FIELD OUTPUT: F-Output-2
** 
*Element Output, elset=Part-1-1.CompositeLayup-1-1, directions=YES
1, 2, 3, 4, 5, 6, 7, 8, 9, 10, 11, 12
HSNFCCRT, HSNFTCRT, HSNMCCRT, HSNMTCRT, MISES, S
** 
** HISTORY OUTPUT: H-Output-1
** 
*Output, history, variable=PRESELECT
*End Step
